
     RDKit          3D

 91 96  0  0  0  0  0  0  0  0999 V2000
    0.6000    1.9278   -1.7680 C   0  0  0  0  0  0  0  0  0  0  0  0
    1.1964    1.1130   -0.7631 O   0  0  0  0  0  0  0  0  0  0  0  0
    0.3746    0.1718   -0.1773 C   0  0  0  0  0  0  0  0  0  0  0  0
   -1.0224    0.2404   -0.1710 C   0  0  0  0  0  0  0  0  0  0  0  0
   -1.7942   -0.7633    0.4376 C   0  0  0  0  0  0  0  0  0  0  0  0
   -3.2024   -0.7091    0.4503 N   0  0  0  0  0  0  0  0  0  0  0  0
   -3.7461    0.4929    1.0859 C   0  0  0  0  0  0  0  0  0  0  0  0
   -5.2240    0.2712    1.4204 C   0  0  0  0  0  0  0  0  0  0  0  0
   -5.9417   -0.6329    0.3942 C   0  0  0  0  0  0  0  0  0  0  0  0
   -7.3856   -0.3494    0.3865 N   0  0  0  0  0  0  0  0  0  0  0  0
   -8.2084   -1.4343   -0.1555 C   0  0  0  0  0  0  0  0  0  0  0  0
   -9.4472   -0.7652   -0.7499 C   0  0  0  0  0  0  0  0  0  0  0  0
   -9.3450    0.7103   -0.3428 C   0  0  2  0  0  0  0  0  0  0  0  0
  -10.0569    1.6282   -1.2593 N   0  0  0  0  0  0  0  0  0  0  0  0
  -11.5008    1.3459   -1.2747 C   0  0  0  0  0  0  0  0  0  0  0  0
   -9.8500    3.0276   -0.8720 C   0  0  0  0  0  0  0  0  0  0  0  0
   -7.8145    0.8788   -0.2910 C   0  0  0  0  0  0  0  0  0  0  0  0
   -5.2335   -0.5593   -0.9670 C   0  0  0  0  0  0  0  0  0  0  0  0
   -3.7858   -1.0499   -0.8566 C   0  0  0  0  0  0  0  0  0  0  0  0
   -1.1380   -1.8481    1.0457 C   0  0  0  0  0  0  0  0  0  0  0  0
   -1.9219   -2.9506    1.7025 C   0  0  0  0  0  0  0  0  0  0  0  0
    0.2682   -1.9007    1.0500 C   0  0  0  0  0  0  0  0  0  0  0  0
    1.0421   -0.8907    0.4690 C   0  0  0  0  0  0  0  0  0  0  0  0
    2.4456   -0.8927    0.4575 N   0  0  0  0  0  0  0  0  0  0  0  0
    3.4237   -1.6809    1.0423 C   0  0  0  0  0  0  0  0  0  0  0  0
    3.1492   -2.8660    1.6033 N   0  0  0  0  0  0  0  0  0  0  0  0
    4.1757   -3.5485    2.1462 C   0  0  0  0  0  0  0  0  0  0  0  0
    5.4666   -3.0838    2.1664 C   0  0  0  0  0  0  0  0  0  0  0  0
    6.8360   -4.1020    2.9711 Br  0  0  0  0  0  0  0  0  0  0  0  0
    5.6725   -1.8432    1.5856 C   0  0  0  0  0  0  0  0  0  0  0  0
    6.9940   -1.3040    1.5072 N   0  0  0  0  0  0  0  0  0  0  0  0
    7.2649    0.0477    1.1596 C   0  0  0  0  0  0  0  0  0  0  0  0
    6.6566    1.0797    1.9026 C   0  0  0  0  0  0  0  0  0  0  0  0
    6.9093    2.4163    1.6187 C   0  0  0  0  0  0  0  0  0  0  0  0
    7.7790    2.7348    0.5857 C   0  0  0  0  0  0  0  0  0  0  0  0
    8.4306    1.7185   -0.1340 C   0  0  0  0  0  0  0  0  0  0  0  0
    8.1953    0.3581    0.1458 C   0  0  0  0  0  0  0  0  0  0  0  0
    9.0107   -0.9054   -0.8052 P   0  0  0  0  0  0  0  0  0  0  0  0
    7.7838   -1.7461   -1.8193 C   0  0  0  0  0  0  0  0  0  0  0  0
    9.6190   -2.2247    0.2631 C   0  0  0  0  0  0  0  0  0  0  0  0
   10.1688   -0.4992   -1.6893 O   0  0  0  0  0  0  0  0  0  0  0  0
    9.3017    2.0172   -1.1541 O   0  0  0  0  0  0  0  0  0  0  0  0
    9.7647    3.3665   -1.1004 C   0  0  0  0  0  0  0  0  0  0  0  0
    8.5915    4.3105   -0.9145 C   0  0  0  0  0  0  0  0  0  0  0  0
    7.9517    4.0735    0.3453 O   0  0  0  0  0  0  0  0  0  0  0  0
    4.6604   -1.1660    1.0051 N   0  0  0  0  0  0  0  0  0  0  0  0
    0.0215    1.3292   -2.4874 H   0  0  0  0  0  0  0  0  0  0  0  0
   -0.0245    2.7062   -1.3133 H   0  0  0  0  0  0  0  0  0  0  0  0
    1.4048    2.4231   -2.3254 H   0  0  0  0  0  0  0  0  0  0  0  0
   -1.5343    1.0770   -0.6351 H   0  0  0  0  0  0  0  0  0  0  0  0
   -3.6473    1.3646    0.4237 H   0  0  0  0  0  0  0  0  0  0  0  0
   -3.2074    0.7264    2.0133 H   0  0  0  0  0  0  0  0  0  0  0  0
   -5.6968    1.2565    1.5150 H   0  0  0  0  0  0  0  0  0  0  0  0
   -5.3092   -0.1948    2.4103 H   0  0  0  0  0  0  0  0  0  0  0  0
   -5.8207   -1.6622    0.7676 H   0  0  0  0  0  0  0  0  0  0  0  0
   -8.4854   -2.1240    0.6500 H   0  0  0  0  0  0  0  0  0  0  0  0
   -7.7059   -2.0170   -0.9344 H   0  0  0  0  0  0  0  0  0  0  0  0
  -10.3746   -1.2289   -0.3933 H   0  0  0  0  0  0  0  0  0  0  0  0
   -9.4155   -0.8648   -1.8443 H   0  0  0  0  0  0  0  0  0  0  0  0
   -9.7459    0.8242    0.6786 H   0  0  0  0  0  0  0  0  0  0  0  0
  -11.9471    1.4270   -0.2757 H   0  0  0  0  0  0  0  0  0  0  0  0
  -12.0182    2.0455   -1.9400 H   0  0  0  0  0  0  0  0  0  0  0  0
  -11.7021    0.3456   -1.6702 H   0  0  0  0  0  0  0  0  0  0  0  0
  -10.1957    3.2264    0.1508 H   0  0  0  0  0  0  0  0  0  0  0  0
   -8.7957    3.3118   -0.9415 H   0  0  0  0  0  0  0  0  0  0  0  0
  -10.3875    3.6959   -1.5512 H   0  0  0  0  0  0  0  0  0  0  0  0
   -7.4108    0.9570   -1.3099 H   0  0  0  0  0  0  0  0  0  0  0  0
   -7.5306    1.7716    0.2762 H   0  0  0  0  0  0  0  0  0  0  0  0
   -5.7505   -1.1531   -1.7292 H   0  0  0  0  0  0  0  0  0  0  0  0
   -5.2240    0.4771   -1.3290 H   0  0  0  0  0  0  0  0  0  0  0  0
   -3.2096   -0.6285   -1.6906 H   0  0  0  0  0  0  0  0  0  0  0  0
   -3.7691   -2.1396   -0.9703 H   0  0  0  0  0  0  0  0  0  0  0  0
   -1.2632   -3.6825    2.1860 H   0  0  0  0  0  0  0  0  0  0  0  0
   -2.5162   -3.4873    0.9544 H   0  0  0  0  0  0  0  0  0  0  0  0
   -2.5850   -2.5419    2.4741 H   0  0  0  0  0  0  0  0  0  0  0  0
    0.7537   -2.7443    1.5299 H   0  0  0  0  0  0  0  0  0  0  0  0
    2.8479   -0.0299    0.1123 H   0  0  0  0  0  0  0  0  0  0  0  0
    3.9074   -4.5112    2.5729 H   0  0  0  0  0  0  0  0  0  0  0  0
    7.4379   -1.4876    2.4080 H   0  0  0  0  0  0  0  0  0  0  0  0
    5.9540    0.8419    2.6979 H   0  0  0  0  0  0  0  0  0  0  0  0
    6.4132    3.2014    2.1821 H   0  0  0  0  0  0  0  0  0  0  0  0
    6.9855   -2.1793   -1.2119 H   0  0  0  0  0  0  0  0  0  0  0  0
    8.2538   -2.5554   -2.3836 H   0  0  0  0  0  0  0  0  0  0  0  0
    7.3418   -1.0395   -2.5283 H   0  0  0  0  0  0  0  0  0  0  0  0
   10.2990   -2.8678   -0.3051 H   0  0  0  0  0  0  0  0  0  0  0  0
    8.8142   -2.8587    0.6346 H   0  0  0  0  0  0  0  0  0  0  0  0
   10.1697   -1.8086    1.1108 H   0  0  0  0  0  0  0  0  0  0  0  0
   10.2827    3.5810   -2.0402 H   0  0  0  0  0  0  0  0  0  0  0  0
   10.4884    3.4631   -0.2814 H   0  0  0  0  0  0  0  0  0  0  0  0
    7.8464    4.1912   -1.7122 H   0  0  0  0  0  0  0  0  0  0  0  0
    8.9367    5.3484   -0.9209 H   0  0  0  0  0  0  0  0  0  0  0  0
  1  2  1  0
  2  3  1  0
  3  4  2  0
  4  5  1  0
  5  6  1  0
  6  7  1  0
  7  8  1  0
  8  9  1  0
  9 10  1  0
 10 11  1  0
 11 12  1  0
 12 13  1  0
 13 14  1  0
 14 15  1  0
 14 16  1  0
 13 17  1  0
  9 18  1  0
 18 19  1  0
  5 20  2  0
 20 21  1  0
 20 22  1  0
 22 23  2  0
 23 24  1  0
 24 25  1  0
 25 26  2  0
 26 27  1  0
 27 28  2  0
 28 29  1  0
 28 30  1  0
 30 31  1  0
 31 32  1  0
 32 33  2  0
 33 34  1  0
 34 35  2  0
 35 36  1  0
 36 37  2  0
 37 38  1  0
 38 39  1  0
 38 40  1  0
 38 41  2  0
 36 42  1  0
 42 43  1  0
 43 44  1  0
 44 45  1  0
 30 46  2  0
 23  3  1  0
 46 25  1  0
 19  6  1  0
 37 32  1  0
 17 10  1  0
 45 35  1  0
  1 47  1  0
  1 48  1  0
  1 49  1  0
  4 50  1  0
  7 51  1  0
  7 52  1  0
  8 53  1  0
  8 54  1  0
  9 55  1  0
 11 56  1  0
 11 57  1  0
 12 58  1  0
 12 59  1  0
 13 60  1  1
 15 61  1  0
 15 62  1  0
 15 63  1  0
 16 64  1  0
 16 65  1  0
 16 66  1  0
 17 67  1  0
 17 68  1  0
 18 69  1  0
 18 70  1  0
 19 71  1  0
 19 72  1  0
 21 73  1  0
 21 74  1  0
 21 75  1  0
 22 76  1  0
 24 77  1  0
 27 78  1  0
 31 79  1  0
 33 80  1  0
 34 81  1  0
 39 82  1  0
 39 83  1  0
 39 84  1  0
 40 85  1  0
 40 86  1  0
 40 87  1  0
 43 88  1  0
 43 89  1  0
 44 90  1  0
 44 91  1  0
M  END
$$$$
