
     RDKit          3D

 51 54  0  0  0  0  0  0  0  0999 V2000
    3.4999   -2.6424   -0.2170 C   0  0  0  0  0  0  0  0  0  0  0  0
    2.9328   -1.4106    0.2090 O   0  0  0  0  0  0  0  0  0  0  0  0
    3.5926   -0.2537   -0.1264 C   0  0  0  0  0  0  0  0  0  0  0  0
    4.8332   -0.2218   -0.7804 C   0  0  0  0  0  0  0  0  0  0  0  0
    5.4649    0.9935   -1.0922 C   0  0  0  0  0  0  0  0  0  0  0  0
    6.8122    1.0341   -1.7670 C   0  0  0  0  0  0  0  0  0  0  0  0
    7.0262   -0.1222   -2.5661 O   0  0  0  0  0  0  0  0  0  0  0  0
    4.8460    2.1890   -0.7131 C   0  0  0  0  0  0  0  0  0  0  0  0
    3.6139    2.1715   -0.0569 C   0  0  0  0  0  0  0  0  0  0  0  0
    2.9735    0.9585    0.2442 C   0  0  0  0  0  0  0  0  0  0  0  0
    1.6745    0.9984    0.9263 C   0  0  0  0  0  0  0  0  0  0  0  0
    0.4861    0.3354    0.6562 C   0  0  0  0  0  0  0  0  0  0  0  0
   -0.4823    0.7302    1.6219 C   0  0  0  0  0  0  0  0  0  0  0  0
   -1.8332    0.4460    1.8906 C   0  0  0  0  0  0  0  0  0  0  0  0
   -2.5699   -0.4456    1.1092 N   0  0  0  0  0  0  0  0  0  0  0  0
   -4.0209   -0.2083    1.0554 C   0  0  2  0  0  0  0  0  0  0  0  0
   -4.7232   -1.0064    2.1859 C   0  0  0  0  0  0  0  0  0  0  0  0
   -4.1472   -2.3096    2.3484 O   0  0  0  0  0  0  0  0  0  0  0  0
   -4.4951   -0.5612   -0.3525 C   0  0  0  0  0  0  0  0  0  0  0  0
   -4.8240   -1.8701   -0.7367 C   0  0  0  0  0  0  0  0  0  0  0  0
   -5.2229   -2.1518   -2.0457 C   0  0  0  0  0  0  0  0  0  0  0  0
   -5.2873   -1.1328   -2.9931 C   0  0  0  0  0  0  0  0  0  0  0  0
   -4.9472    0.1691   -2.6353 C   0  0  0  0  0  0  0  0  0  0  0  0
   -4.5494    0.4521   -1.3271 C   0  0  0  0  0  0  0  0  0  0  0  0
   -2.4063    1.0542    2.9572 N   0  0  0  0  0  0  0  0  0  0  0  0
   -1.6627    1.8964    3.7036 C   0  0  0  0  0  0  0  0  0  0  0  0
   -0.3776    2.2452    3.5309 N   0  0  0  0  0  0  0  0  0  0  0  0
    0.1528    1.6202    2.4704 C   0  0  0  0  0  0  0  0  0  0  0  0
    1.4446    1.7642    2.0493 N   0  0  0  0  0  0  0  0  0  0  0  0
    3.5818   -2.6849   -1.3079 H   0  0  0  0  0  0  0  0  0  0  0  0
    2.8257   -3.4455    0.0963 H   0  0  0  0  0  0  0  0  0  0  0  0
    4.4683   -2.8170    0.2628 H   0  0  0  0  0  0  0  0  0  0  0  0
    5.3383   -1.1402   -1.0658 H   0  0  0  0  0  0  0  0  0  0  0  0
    7.6010    1.0894   -1.0103 H   0  0  0  0  0  0  0  0  0  0  0  0
    6.8789    1.9089   -2.4229 H   0  0  0  0  0  0  0  0  0  0  0  0
    7.8563    0.0252   -3.0484 H   0  0  0  0  0  0  0  0  0  0  0  0
    5.3142    3.1459   -0.9324 H   0  0  0  0  0  0  0  0  0  0  0  0
    3.1468    3.1198    0.1995 H   0  0  0  0  0  0  0  0  0  0  0  0
    0.3374   -0.3612   -0.1587 H   0  0  0  0  0  0  0  0  0  0  0  0
   -2.1451   -0.5716    0.1945 H   0  0  0  0  0  0  0  0  0  0  0  0
   -4.2676    0.8528    1.2041 H   0  0  0  0  0  0  0  0  0  0  0  0
   -4.6030   -0.4913    3.1445 H   0  0  0  0  0  0  0  0  0  0  0  0
   -5.7964   -1.1175    2.0008 H   0  0  0  0  0  0  0  0  0  0  0  0
   -3.1852   -2.1492    2.2442 H   0  0  0  0  0  0  0  0  0  0  0  0
   -4.7689   -2.6907   -0.0241 H   0  0  0  0  0  0  0  0  0  0  0  0
   -5.4797   -3.1708   -2.3236 H   0  0  0  0  0  0  0  0  0  0  0  0
   -5.5968   -1.3552   -4.0109 H   0  0  0  0  0  0  0  0  0  0  0  0
   -4.9880    0.9641   -3.3752 H   0  0  0  0  0  0  0  0  0  0  0  0
   -4.2779    1.4745   -1.0704 H   0  0  0  0  0  0  0  0  0  0  0  0
   -2.1697    2.3515    4.5494 H   0  0  0  0  0  0  0  0  0  0  0  0
    2.1257    2.3415    2.5183 H   0  0  0  0  0  0  0  0  0  0  0  0
  1  2  1  0
  2  3  1  0
  3  4  2  0
  4  5  1  0
  5  6  1  0
  6  7  1  0
  5  8  2  0
  8  9  1  0
  9 10  2  0
 10 11  1  0
 11 12  2  0
 12 13  1  0
 13 14  2  0
 14 15  1  0
 15 16  1  0
 16 17  1  0
 17 18  1  0
 16 19  1  0
 19 20  2  0
 20 21  1  0
 21 22  2  0
 22 23  1  0
 23 24  2  0
 14 25  1  0
 25 26  2  0
 26 27  1  0
 27 28  2  0
 28 29  1  0
 10  3  1  0
 29 11  1  0
 28 13  1  0
 24 19  1  0
  1 30  1  0
  1 31  1  0
  1 32  1  0
  4 33  1  0
  6 34  1  0
  6 35  1  0
  7 36  1  0
  8 37  1  0
  9 38  1  0
 12 39  1  0
 15 40  1  0
 16 41  1  1
 17 42  1  0
 17 43  1  0
 18 44  1  0
 20 45  1  0
 21 46  1  0
 22 47  1  0
 23 48  1  0
 24 49  1  0
 26 50  1  0
 29 51  1  0
M  END
$$$$
