
     RDKit          3D

 69 71  0  0  0  0  0  0  0  0999 V2000
   -0.9471    4.3491    0.6253 C   0  0  0  0  0  0  0  0  0  0  0  0
   -0.2568    3.1321    0.3751 O   0  0  0  0  0  0  0  0  0  0  0  0
   -0.9564    1.9628    0.5830 C   0  0  0  0  0  0  0  0  0  0  0  0
   -2.3181    1.8906    0.8868 C   0  0  0  0  0  0  0  0  0  0  0  0
   -2.9353    0.6476    1.1039 C   0  0  0  0  0  0  0  0  0  0  0  0
   -4.3144    0.5370    1.4702 N   0  0  0  0  0  0  0  0  0  0  0  0
   -4.5488    1.1524    2.7828 C   0  0  0  0  0  0  0  0  0  0  0  0
   -5.2241    1.0168    0.3986 C   0  0  0  0  0  0  0  0  0  0  0  0
   -5.6795   -0.1650   -0.4927 C   0  0  0  0  0  0  0  0  0  0  0  0
   -6.6167    0.1295   -1.5930 N   0  0  0  0  0  0  0  0  0  0  0  0
   -6.0099    0.9564   -2.6328 C   0  0  0  0  0  0  0  0  0  0  0  0
   -7.8789    0.6982   -1.1312 C   0  0  0  0  0  0  0  0  0  0  0  0
   -2.1641   -0.5350    0.9974 C   0  0  0  0  0  0  0  0  0  0  0  0
   -2.8568   -1.7369    1.2625 N   0  0  0  0  0  0  0  0  0  0  0  0
   -2.4012   -3.0275    1.1622 C   0  0  0  0  0  0  0  0  0  0  0  0
   -1.3010   -3.4034    0.7798 O   0  0  0  0  0  0  0  0  0  0  0  0
   -3.4534   -4.0089    1.5594 C   0  0  0  0  0  0  0  0  0  0  0  0
   -3.3060   -5.3141    1.2922 C   0  0  0  0  0  0  0  0  0  0  0  0
   -0.8063   -0.4613    0.6762 C   0  0  0  0  0  0  0  0  0  0  0  0
   -0.1905    0.7800    0.4580 C   0  0  0  0  0  0  0  0  0  0  0  0
    1.2072    0.9149    0.2514 N   0  0  0  0  0  0  0  0  0  0  0  0
    2.1156    0.0167   -0.3472 C   0  0  0  0  0  0  0  0  0  0  0  0
    1.6910   -1.0497   -1.0417 N   0  0  0  0  0  0  0  0  0  0  0  0
    2.6209   -1.8668   -1.5751 C   0  0  0  0  0  0  0  0  0  0  0  0
    3.9868   -1.6727   -1.4527 C   0  0  0  0  0  0  0  0  0  0  0  0
    4.4478   -0.5695   -0.7356 C   0  0  0  0  0  0  0  0  0  0  0  0
    3.4783    0.2805   -0.1832 C   0  0  0  0  0  0  0  0  0  0  0  0
    5.8619   -0.3110   -0.5370 N   0  0  0  0  0  0  0  0  0  0  0  0
    6.3024    0.3578    0.5988 C   0  0  0  0  0  0  0  0  0  0  0  0
    7.5917    0.6202    0.8253 C   0  0  0  0  0  0  0  0  0  0  0  0
    8.6197    0.2166   -0.1027 C   0  0  0  0  0  0  0  0  0  0  0  0
    9.9120    0.5383    0.2598 N   0  0  0  0  0  0  0  0  0  0  0  0
    8.2593   -0.4359   -1.2253 C   0  0  0  0  0  0  0  0  0  0  0  0
    9.2068   -0.9106   -2.2924 C   0  0  0  0  0  0  0  0  0  0  0  0
    6.8020   -0.7332   -1.5052 C   0  0  0  0  0  0  0  0  0  0  0  0
    6.5279   -1.2939   -2.5675 O   0  0  0  0  0  0  0  0  0  0  0  0
   -1.7575    4.4964   -0.0956 H   0  0  0  0  0  0  0  0  0  0  0  0
   -0.2327    5.1672    0.4976 H   0  0  0  0  0  0  0  0  0  0  0  0
   -1.3169    4.3889    1.6548 H   0  0  0  0  0  0  0  0  0  0  0  0
   -2.9182    2.7890    0.9693 H   0  0  0  0  0  0  0  0  0  0  0  0
   -4.3861    2.2356    2.7671 H   0  0  0  0  0  0  0  0  0  0  0  0
   -3.8971    0.7068    3.5432 H   0  0  0  0  0  0  0  0  0  0  0  0
   -5.5812    0.9714    3.0980 H   0  0  0  0  0  0  0  0  0  0  0  0
   -6.1117    1.4641    0.8634 H   0  0  0  0  0  0  0  0  0  0  0  0
   -4.7646    1.8057   -0.2087 H   0  0  0  0  0  0  0  0  0  0  0  0
   -4.7975   -0.6680   -0.9135 H   0  0  0  0  0  0  0  0  0  0  0  0
   -6.1490   -0.9198    0.1560 H   0  0  0  0  0  0  0  0  0  0  0  0
   -6.6838    1.0356   -3.4945 H   0  0  0  0  0  0  0  0  0  0  0  0
   -5.0827    0.4999   -3.0034 H   0  0  0  0  0  0  0  0  0  0  0  0
   -5.7878    1.9724   -2.2852 H   0  0  0  0  0  0  0  0  0  0  0  0
   -7.7679    1.7130   -0.7312 H   0  0  0  0  0  0  0  0  0  0  0  0
   -8.6020    0.7341   -1.9540 H   0  0  0  0  0  0  0  0  0  0  0  0
   -8.3246    0.0688   -0.3511 H   0  0  0  0  0  0  0  0  0  0  0  0
   -3.8246   -1.5639    1.5176 H   0  0  0  0  0  0  0  0  0  0  0  0
   -4.3405   -3.6461    2.0635 H   0  0  0  0  0  0  0  0  0  0  0  0
   -4.0677   -6.0317    1.5770 H   0  0  0  0  0  0  0  0  0  0  0  0
   -2.4259   -5.6872    0.7679 H   0  0  0  0  0  0  0  0  0  0  0  0
   -0.2049   -1.3632    0.6208 H   0  0  0  0  0  0  0  0  0  0  0  0
    1.4126    1.8728   -0.0200 H   0  0  0  0  0  0  0  0  0  0  0  0
    2.2265   -2.7178   -2.1215 H   0  0  0  0  0  0  0  0  0  0  0  0
    4.6536   -2.4057   -1.8909 H   0  0  0  0  0  0  0  0  0  0  0  0
    3.7596    1.1802    0.3541 H   0  0  0  0  0  0  0  0  0  0  0  0
    5.5693    0.6403    1.3462 H   0  0  0  0  0  0  0  0  0  0  0  0
    7.8798    1.1410    1.7326 H   0  0  0  0  0  0  0  0  0  0  0  0
   10.6270    0.0048   -0.2271 H   0  0  0  0  0  0  0  0  0  0  0  0
   10.0704    0.5384    1.2643 H   0  0  0  0  0  0  0  0  0  0  0  0
   10.2253   -0.5317   -2.1663 H   0  0  0  0  0  0  0  0  0  0  0  0
    8.8760   -0.5878   -3.2853 H   0  0  0  0  0  0  0  0  0  0  0  0
    9.2589   -2.0060   -2.2823 H   0  0  0  0  0  0  0  0  0  0  0  0
  1  2  1  0
  2  3  1  0
  3  4  2  0
  4  5  1  0
  5  6  1  0
  6  7  1  0
  6  8  1  0
  8  9  1  0
  9 10  1  0
 10 11  1  0
 10 12  1  0
  5 13  2  0
 13 14  1  0
 14 15  1  0
 15 16  2  0
 15 17  1  0
 17 18  2  0
 13 19  1  0
 19 20  2  0
 20 21  1  0
 21 22  1  0
 22 23  2  0
 23 24  1  0
 24 25  2  0
 25 26  1  0
 26 27  2  0
 26 28  1  0
 28 29  1  0
 29 30  2  0
 30 31  1  0
 31 32  1  0
 31 33  2  0
 33 34  1  0
 33 35  1  0
 35 36  2  0
 20  3  1  0
 27 22  1  0
 35 28  1  0
  1 37  1  0
  1 38  1  0
  1 39  1  0
  4 40  1  0
  7 41  1  0
  7 42  1  0
  7 43  1  0
  8 44  1  0
  8 45  1  0
  9 46  1  0
  9 47  1  0
 11 48  1  0
 11 49  1  0
 11 50  1  0
 12 51  1  0
 12 52  1  0
 12 53  1  0
 14 54  1  0
 17 55  1  0
 18 56  1  0
 18 57  1  0
 19 58  1  0
 21 59  1  0
 24 60  1  0
 25 61  1  0
 27 62  1  0
 29 63  1  0
 30 64  1  0
 32 65  1  0
 32 66  1  0
 34 67  1  0
 34 68  1  0
 34 69  1  0
M  END
$$$$
